[TITLE]


[JUNCTIONS]
;ID              	Elev        	Demand      	Pattern         
 2               	0           	0           	                	;
 3               	0           	0           	                	;
 4               	0           	0           	                	;
 6               	0           	0           	                	;
 7               	0           	0           	                	;
 F4Ha            	-0.166667   	0           	                	; F4 Hot
 F4Ca            	-0.166667   	0           	                	; F4 Cold
 10              	0           	0           	                	;
 11              	0           	0           	                	;
 F3Ha            	-0.208333   	0           	                	; F3 Hot
 F3Ca            	-0.20833    	0           	                	; F3 Cold
 14              	0           	0           	                	;
 TOL1Ca          	-0.95833    	0           	                	; Toilet
 16              	0           	0           	                	;
 17              	0           	0           	                	;
 F2Ha            	-0.5        	0           	                	; F2 Hot
 F2Ca            	-0.5        	0           	                	; F2 Cold
 20              	0           	0           	                	;
 21              	0           	0           	                	;
 SH1H            	0.25        	1           	SH1HP           	; Shower Hot
 SH1C            	0.25        	1           	SH1CP           	; Shower Cold
 24              	0           	0           	                	;
 F1Ha            	-0.541667   	0           	                	; F1 Hot
 F1Ca            	-0.541667   	0           	                	; F1 Cold
 8               	0           	0           	                	;
 HWHin           	0           	0           	                	;
 HWHout          	0           	0           	                	;
 TOL1C           	-0.83333    	1           	TOL1CP          	;
 F4H             	0.166667    	1           	F4HP            	;
 F4C             	0.166667    	1           	F4CP            	;
 F3H             	0.625       	1           	F3HP            	;
 F3C             	0.625       	1           	F3CP            	;
 F2H             	-0.041667   	1           	F2HP            	;
 F2C             	-0.041667   	1           	F2CP            	;
 F1H             	-0.125      	1           	F1HP            	;
 F1C             	-0.125      	1           	F1CP            	;

[RESERVOIRS]
;ID              	Head        	Pattern         
 1               	20          	                	;

[TANKS]
;ID              	Elevation   	InitLevel   	MinLevel    	MaxLevel    	Diameter    	MinVol      	VolCurve        	Overflow

[PIPES]
;ID              	Node1           	Node2           	Length      	Diameter    	Roughness   	MinorLoss   	Status
 1               	8               	2               	6.333       	0.475         	130         	0           	Open  	;
 2               	2               	3               	6.7083      	0.475         	130         	0           	Open  	; 6.333 Officially, changed for lead simulation
 3               	3               	4               	0.4375      	0.475         	130         	0           	Open  	;
 4               	3               	HWHin           	1.5208      	0.475         	130         	0           	Open  	;
 5               	HWHout          	7               	9.7917      	0.475         	130         	0           	Open  	;
 6               	7               	10              	10.9583     	0.475         	130         	0           	Open  	;
 7               	10              	17              	10.0833     	0.475         	130         	0           	Open  	;
 8               	17              	20              	6.3333      	0.475         	130         	0           	Open  	;
 9               	20              	24              	9.7917      	0.475         	130         	0           	Open  	;
 10              	4               	6               	7.0000      	0.475         	130         	0           	Open  	;
 11              	6               	11              	10.3750     	0.475         	130         	0           	Open  	;
 12              	11              	14              	4.1667      	0.475         	130         	0           	Open  	;
 13              	14              	TOL1Ca          	7.208333    	0.475         	130         	0           	Open  	;Toilet
 14              	14              	16              	5.0417      	0.475         	130         	0           	Open  	;
 15              	16              	21              	9.8333      	0.475         	130         	0           	Open  	;
 16              	21              	F1Ca            	9           	0.475         	130         	0           	Open  	;F1 Cold
 17              	7               	F4Ha            	10.6667     	0.475         	130         	0           	Open  	;F4 Hot
 18              	6               	F4Ca            	10.5833     	0.475         	130         	0           	Open  	;F4 Cold
 19              	10              	F3Ha            	5           	0.475         	130         	0           	Open  	;F3 Hot, can be lead source 20mL
 20              	11              	F3Ca            	5           	0.475         	130         	0           	Open  	;F3 Cold, can be lead source 20mL
 21              	17              	F2Ha            	9.4167      	0.475         	130         	0           	Open  	;F2 Hot
 22              	16              	F2Ca            	9.2083      	0.475         	130         	0           	Open  	;F2 Cold
 23              	20              	SH1H            	4.0208      	0.475         	130         	0           	Open  	;Shower Hot
 24              	21              	SH1C            	5           	0.475         	130         	27          	Open  	;Shower Cold
 25              	24              	F1Ha            	2.8542      	0.475         	130         	0           	Open  	;F1 Hot
 26              	1               	8               	0.25        	0.475         	130         	0           	Open  	;
 HWH             	HWHin           	HWHout          	3.03        	0.475          	130         	0           	Open  	;18" x 3.03 ft (0.5" for test without HWH)
 27              	TOL1Ca          	TOL1C           	1.666667    	.375        	130         	0           	Open  	;Toilet Flex Hose (3/8x20)
 28              	F4Ha            	F4H             	1.666667    	.375        	130         	0           	Open  	;
 29              	F4Ca            	F4C             	1.666667    	.375        	130         	0           	Open  	;
 30              	F3Ha            	F3H             	1.666667    	.375        	130         	0           	Open  	;
 31              	F3Ca            	F3C             	1.666667    	.375        	130         	0           	Open  	;
 32              	F2Ha            	F2H             	1.666667    	.375        	130         	0           	Open  	;
 33              	F2Ca            	F2C             	1.666667    	.375        	130         	0           	Open  	;
 34              	F1Ha            	F1H             	1.666667    	.375        	130         	0           	Open  	;
 35              	F1Ca            	F1C             	1.666667    	.375        	130         	0           	Open  	;

[PUMPS]
;ID              	Node1           	Node2           	Parameters

[VALVES]
;ID              	Node1           	Node2           	Diameter    	Type	Setting     	MinorLoss   

[TAGS]

[DEMANDS]
;Junction        	Demand      	Pattern         	Category

[STATUS]
;ID              	Status/Setting

[PATTERNS]
;ID              	Multipliers
;
 TOL1CP          	0           
;
 SPS1P           	0           
;
 F4HP            	0           
;
 F4CP            	0           
;
 F3HP            	0           
;
 F3CP            	0           
;
 F2HP            	0           
;
 F2CP            	0           
;
 SH1HP           	0           
;
 SH1CP           	0           
;
 F1HP            	0           
;
 F1CP            	0           
;
 HWS1P           	0           

[CURVES]
;ID              	X-Value     	Y-Value

[CONTROLS]






[RULES]






[ENERGY]
 Global Efficiency  	75
 Global Price       	0
 Demand Charge      	0

[EMITTERS]
;Junction        	Coefficient

[QUALITY]
;Node            	InitQual

[SOURCES]
;Node            	Type        	Quality     	Pattern

[REACTIONS]
;Type     	Pipe/Tank       	Coefficient


[REACTIONS]
 Order Bulk            	1
 Order Tank            	1
 Order Wall            	1
 Global Bulk           	0
 Global Wall           	0
 Limiting Potential    	0.0
 Roughness Correlation 	0

[MIXING]
;Tank            	Model

[TIMES]
 Duration           	0:00 
 Hydraulic Timestep 	0:00 
 Quality Timestep   	0:00 
 Pattern Timestep   	0:00 
 Pattern Start      	0:00 
 Report Timestep    	0:00 
 Report Start       	0:00 
 Start ClockTime    	12 am
 Statistic          	NONE

[REPORT]
 Status             	Yes
 Summary            	No
 Page               	0

[OPTIONS]
 Units              	GPM
 Headloss           	H-W
 Specific Gravity   	1
 Viscosity          	1
 Trials             	500
 Accuracy           	0.000001
 CHECKFREQ          	2
 MAXCHECK           	50
 DAMPLIMIT          	0
 Unbalanced         	Continue 10
 Pattern            	1
 Demand Multiplier  	1.0
 Emitter Exponent   	0.5
 Quality            	None mg/L
 Diffusivity        	1
 Tolerance          	0.000001

[COORDINATES]
;Node            	X-Coord           	Y-Coord
2               	1275.000          	6500.000          
3               	1700.000          	6500.000          
4               	1975.000          	6700.000          
6               	3250.000          	6700.000          
7               	3000.000          	6150.000          
F4Ha            	3000.000          	5000.000          
F4Ca            	3250.000          	5000.000          
10              	4100.000          	6150.000          
11              	4350.000          	6700.000          
F3Ha            	4100.000          	5000.000          
F3Ca            	4350.000          	5000.000          
14              	5150.000          	6700.000          
TOL1Ca          	5150.000          	7400.000          
16              	5750.000          	6700.000          
17              	5500.000          	6150.000          
F2Ha            	5500.000          	5000.000          
F2Ca            	5750.000          	5000.000          
20              	6500.000          	6150.000          
21              	6750.000          	6700.000          
SH1H            	6500.000          	5000.000          
SH1C            	6750.000          	5000.000          
24              	7400.000          	6150.000          
F1Ha            	7400.000          	5000.000          
F1Ca            	7650.000          	5000.000          
8               	700.000           	6500.000          
HWHin           	1975.000          	6150.000          
HWHout          	2150.000          	6150.000          
TOL1C           	5147.966          	7580.303          
F4H             	3000.000          	4850.000          
F4C             	3250.000          	4850.000          
F3H             	4100.000          	4850.000          
F3C             	4350.000          	4850.000          
F2H             	5500.000          	4850.000          
F2C             	5750.000          	4850.000          
F1H             	7400.000          	4850.000          
F1C             	7650.000          	4850.000          
1               	434.780           	6499.440          

[VERTICES]
;Link            	X-Coord           	Y-Coord
16              	7650.000          	6700.000          

[LABELS]
;X-Coord             Y-Coord             Label & Anchor Node
5000.000          	7900.000          	"Toilet"	
3075.000          	4800.000          	"F4"	
4200.000          	4800.000          	"F3"	
5575.000          	4800.000          	"F2"	
6500.000          	4800.000          	"Shower"	
7475.000          	4800.000          	"F1"	
2000.000          	7500.000          	"EPA Test Home System"	
1947.107          	6089.492          	"HWH"	

[BACKDROP]
  DIMENSIONS  	0.000             	0.000             	10000.000         	10000.000         
 UNITS          	None
 FILE           	
 OFFSET         	0.00            	0.00            

[END]
